miqcp/testcases/nesta_case30_ieee__sad.m
%%%%%%%%%%%%%%%%%%%%%%%%%%%%%%%%%%%%%%%%%%%%%%%%%%%%%%%%%%%%%%%%%%%%%%%%%%%
%%%%                                                                  %%%%%
%%%%      NICTA Energy System Test Case Archive (NESTA) - v0.7.0      %%%%%
%%%%           Optimal Power Flow - Small Angle Difference            %%%%%
%%%%                         05 - June - 2017                         %%%%%
%%%%                                                                  %%%%%
%%%%%%%%%%%%%%%%%%%%%%%%%%%%%%%%%%%%%%%%%%%%%%%%%%%%%%%%%%%%%%%%%%%%%%%%%%%
function mpc = nesta_case30_ieee__sad
mpc.version = '2';
mpc.baseMVA = 100.0;

%% bus data
%	bus_i	type        Pd      Qd     Gs	Bs	area	Vm	Va	baseKV	zone	Vmax	Vmin
mpc.bus = [
	1	 3	 0.0	 0.0	 0.0	 0.0	 1	    1.06000	   -0.00000	 132.0	 1	    1.06000	    0.94000;
	2	 2	 21.7	 12.7	 0.0	 0.0	 1	    1.03592	   -4.11149	 132.0	 1	    1.06000	    0.94000;
	3	 1	 2.4	 1.2	 0.0	 0.0	 1	    1.01502	   -6.85372	 132.0	 1	    1.06000	    0.94000;
	4	 1	 7.6	 1.6	 0.0	 0.0	 1	    1.00446	   -8.44573	 132.0	 1	    1.06000	    0.94000;
	5	 2	 94.2	 19.0	 0.0	 0.0	 1	    0.99748	  -13.13219	 132.0	 1	    1.06000	    0.94000;
	6	 1	 0.0	 0.0	 0.0	 0.0	 1	    1.00169	  -10.15670	 132.0	 1	    1.06000	    0.94000;
	7	 1	 22.8	 10.9	 0.0	 0.0	 1	    0.99208	  -11.91709	 132.0	 1	    1.06000	    0.94000;
	8	 2	 30.0	 30.0	 0.0	 0.0	 1	    1.00241	  -10.93464	 132.0	 1	    1.06000	    0.94000;
	9	 1	 0.0	 0.0	 0.0	 0.0	 1	    1.03671	  -13.26617	 1.0	 1	    1.06000	    0.94000;
	10	 1	 5.8	 2.0	 0.0	 19.0	 1	    1.03220	  -14.89731	 33.0	 1	    1.06000	    0.94000;
	11	 2	 0.0	 0.0	 0.0	 0.0	 1	    1.06000	  -13.26617	 11.0	 1	    1.06000	    0.94000;
	12	 1	 11.2	 7.5	 0.0	 0.0	 1	    1.04625	  -14.18876	 33.0	 1	    1.06000	    0.94000;
	13	 2	 0.0	 0.0	 0.0	 0.0	 1	    1.06000	  -14.18876	 11.0	 1	    1.06000	    0.94000;
	14	 1	 6.2	 1.6	 0.0	 0.0	 1	    1.03103	  -15.09457	 33.0	 1	    1.06000	    0.94000;
	15	 1	 8.2	 2.5	 0.0	 0.0	 1	    1.02621	  -15.17833	 33.0	 1	    1.06000	    0.94000;
	16	 1	 3.5	 1.8	 0.0	 0.0	 1	    1.03259	  -14.75320	 33.0	 1	    1.06000	    0.94000;
	17	 1	 9.0	 5.8	 0.0	 0.0	 1	    1.02725	  -15.07477	 33.0	 1	    1.06000	    0.94000;
	18	 1	 3.2	 0.9	 0.0	 0.0	 1	    1.01602	  -15.79034	 33.0	 1	    1.06000	    0.94000;
	19	 1	 9.5	 3.4	 0.0	 0.0	 1	    1.01317	  -15.95831	 33.0	 1	    1.06000	    0.94000;
	20	 1	 2.2	 0.7	 0.0	 0.0	 1	    1.01714	  -15.75155	 33.0	 1	    1.06000	    0.94000;
	21	 1	 17.5	 11.2	 0.0	 0.0	 1	    1.01982	  -15.35269	 33.0	 1	    1.06000	    0.94000;
	22	 1	 0.0	 0.0	 0.0	 0.0	 1	    1.02041	  -15.33862	 33.0	 1	    1.06000	    0.94000;
	23	 1	 3.2	 1.6	 0.0	 0.0	 1	    1.01532	  -15.56402	 33.0	 1	    1.06000	    0.94000;
	24	 1	 8.7	 6.7	 0.0	 4.3	 1	    1.00930	  -15.72599	 33.0	 1	    1.06000	    0.94000;
	25	 1	 0.0	 0.0	 0.0	 0.0	 1	    1.00621	  -15.29140	 33.0	 1	    1.06000	    0.94000;
	26	 1	 3.5	 2.3	 0.0	 0.0	 1	    0.98833	  -15.72056	 33.0	 1	    1.06000	    0.94000;
	27	 1	 0.0	 0.0	 0.0	 0.0	 1	    1.01294	  -14.75622	 33.0	 1	    1.06000	    0.94000;
	28	 1	 0.0	 0.0	 0.0	 0.0	 1	    0.99824	  -10.79564	 132.0	 1	    1.06000	    0.94000;
	29	 1	 2.4	 0.9	 0.0	 0.0	 1	    0.99288	  -16.01184	 33.0	 1	    1.06000	    0.94000;
	30	 1	 10.6	 1.9	 0.0	 0.0	 1	    0.98128	  -16.91371	 33.0	 1	    1.06000	    0.94000;
];

%% generator data
%	bus	Pg	Qg	Qmax	Qmin	Vg	mBase	status	Pmax	Pmin	Pc1	Pc2	Qc1min	Qc1max	Qc2min	Qc2max	ramp_agc	ramp_10	ramp_30	ramp_q	apf
mpc.gen = [
	1	 218.839	 9.373	 10.0	 0.0	 1.06	 100.0	 1	 784.0	 0.0	 0.0	 0.0	 0.0	 0.0	 0.0	 0.0	 0.0	 0.0	 0.0	 0.0	 0.0;
	2	 80.05	 24.589	 50.0	 -40.0	 1.03592	 100.0	 1	 100.0	 0.0	 0.0	 0.0	 0.0	 0.0	 0.0	 0.0	 0.0	 0.0	 0.0	 0.0	 0.0;
	5	 0.0	 32.487	 40.0	 -40.0	 0.99748	 100.0	 1	 0.0	 0.0	 0.0	 0.0	 0.0	 0.0	 0.0	 0.0	 0.0	 0.0	 0.0	 0.0	 0.0;
	8	 0.0	 40.0	 40.0	 -10.0	 1.00241	 100.0	 1	 0.0	 0.0	 0.0	 0.0	 0.0	 0.0	 0.0	 0.0	 0.0	 0.0	 0.0	 0.0	 0.0;
	11	 0.0	 11.87	 24.0	 -6.0	 1.06	 100.0	 1	 0.0	 0.0	 0.0	 0.0	 0.0	 0.0	 0.0	 0.0	 0.0	 0.0	 0.0	 0.0	 0.0;
	13	 0.0	 10.414	 24.0	 -6.0	 1.06	 100.0	 1	 0.0	 0.0	 0.0	 0.0	 0.0	 0.0	 0.0	 0.0	 0.0	 0.0	 0.0	 0.0	 0.0;
];

%% generator cost data
%	2	startup	shutdown	n	c(n-1)	...	c0
mpc.gencost = [
	2	 0.0	 0.0	 3	   0.000000	   0.521378	   0.000000;
	2	 0.0	 0.0	 3	   0.000000	   1.135166	   0.000000;
	2	 0.0	 0.0	 3	   0.000000	   0.000000	   0.000000;
	2	 0.0	 0.0	 3	   0.000000	   0.000000	   0.000000;
	2	 0.0	 0.0	 3	   0.000000	   0.000000	   0.000000;
	2	 0.0	 0.0	 3	   0.000000	   0.000000	   0.000000;
];

%% branch data
%	fbus	tbus	r	x	b	rateA	rateB	rateC	ratio	angle	status	angmin	angmax
mpc.branch = [
	1	 2	 0.0192	 0.0575	 0.0528	 138.0	 138.0	 138.0	 0.0	 0.0	 1	 -9.159643	 9.159643;
	1	 3	 0.0452	 0.1652	 0.0408	 152.0	 152.0	 152.0	 0.0	 0.0	 1	 -9.159643	 9.159643;
	2	 4	 0.057	 0.1737	 0.0368	 139.0	 139.0	 139.0	 0.0	 0.0	 1	 -9.159643	 9.159643;
	3	 4	 0.0132	 0.0379	 0.0084	 135.0	 135.0	 135.0	 0.0	 0.0	 1	 -9.159643	 9.159643;
	2	 5	 0.0472	 0.1983	 0.0418	 144.0	 144.0	 144.0	 0.0	 0.0	 1	 -9.159643	 9.159643;
	2	 6	 0.0581	 0.1763	 0.0374	 139.0	 139.0	 139.0	 0.0	 0.0	 1	 -9.159643	 9.159643;
	4	 6	 0.0119	 0.0414	 0.009	 148.0	 148.0	 148.0	 0.0	 0.0	 1	 -9.159643	 9.159643;
	5	 7	 0.046	 0.116	 0.0204	 127.0	 127.0	 127.0	 0.0	 0.0	 1	 -9.159643	 9.159643;
	6	 7	 0.0267	 0.082	 0.017	 140.0	 140.0	 140.0	 0.0	 0.0	 1	 -9.159643	 9.159643;
	6	 8	 0.012	 0.042	 0.009	 148.0	 148.0	 148.0	 0.0	 0.0	 1	 -9.159643	 9.159643;
	6	 9	 0.0	 0.208	 0.0	 142.0	 142.0	 142.0	 0.978	 0.0	 1	 -9.159643	 9.159643;
	6	 10	 0.0	 0.556	 0.0	 53.0	 53.0	 53.0	 0.969	 0.0	 1	 -9.159643	 9.159643;
	9	 11	 0.0	 0.208	 0.0	 142.0	 142.0	 142.0	 0.0	 0.0	 1	 -9.159643	 9.159643;
	9	 10	 0.0	 0.11	 0.0	 267.0	 267.0	 267.0	 0.0	 0.0	 1	 -9.159643	 9.159643;
	4	 12	 0.0	 0.256	 0.0	 115.0	 115.0	 115.0	 0.932	 0.0	 1	 -9.159643	 9.159643;
	12	 13	 0.0	 0.14	 0.0	 210.0	 210.0	 210.0	 0.0	 0.0	 1	 -9.159643	 9.159643;
	12	 14	 0.1231	 0.2559	 0.0	 29.0	 29.0	 29.0	 0.0	 0.0	 1	 -9.159643	 9.159643;
	12	 15	 0.0662	 0.1304	 0.0	 29.0	 29.0	 29.0	 0.0	 0.0	 1	 -9.159643	 9.159643;
	12	 16	 0.0945	 0.1987	 0.0	 30.0	 30.0	 30.0	 0.0	 0.0	 1	 -9.159643	 9.159643;
	14	 15	 0.221	 0.1997	 0.0	 20.0	 20.0	 20.0	 0.0	 0.0	 1	 -9.159643	 9.159643;
	16	 17	 0.0524	 0.1923	 0.0	 38.0	 38.0	 38.0	 0.0	 0.0	 1	 -9.159643	 9.159643;
	15	 18	 0.1073	 0.2185	 0.0	 29.0	 29.0	 29.0	 0.0	 0.0	 1	 -9.159643	 9.159643;
	18	 19	 0.0639	 0.1292	 0.0	 29.0	 29.0	 29.0	 0.0	 0.0	 1	 -9.159643	 9.159643;
	19	 20	 0.034	 0.068	 0.0	 29.0	 29.0	 29.0	 0.0	 0.0	 1	 -9.159643	 9.159643;
	10	 20	 0.0936	 0.209	 0.0	 30.0	 30.0	 30.0	 0.0	 0.0	 1	 -9.159643	 9.159643;
	10	 17	 0.0324	 0.0845	 0.0	 33.0	 33.0	 33.0	 0.0	 0.0	 1	 -9.159643	 9.159643;
	10	 21	 0.0348	 0.0749	 0.0	 30.0	 30.0	 30.0	 0.0	 0.0	 1	 -9.159643	 9.159643;
	10	 22	 0.0727	 0.1499	 0.0	 29.0	 29.0	 29.0	 0.0	 0.0	 1	 -9.159643	 9.159643;
	21	 22	 0.0116	 0.0236	 0.0	 29.0	 29.0	 29.0	 0.0	 0.0	 1	 -9.159643	 9.159643;
	15	 23	 0.1	 0.202	 0.0	 29.0	 29.0	 29.0	 0.0	 0.0	 1	 -9.159643	 9.159643;
	22	 24	 0.115	 0.179	 0.0	 26.0	 26.0	 26.0	 0.0	 0.0	 1	 -9.159643	 9.159643;
	23	 24	 0.132	 0.27	 0.0	 29.0	 29.0	 29.0	 0.0	 0.0	 1	 -9.159643	 9.159643;
	24	 25	 0.1885	 0.3292	 0.0	 27.0	 27.0	 27.0	 0.0	 0.0	 1	 -9.159643	 9.159643;
	25	 26	 0.2544	 0.38	 0.0	 25.0	 25.0	 25.0	 0.0	 0.0	 1	 -9.159643	 9.159643;
	25	 27	 0.1093	 0.2087	 0.0	 28.0	 28.0	 28.0	 0.0	 0.0	 1	 -9.159643	 9.159643;
	28	 27	 0.0	 0.396	 0.0	 75.0	 75.0	 75.0	 0.968	 0.0	 1	 -9.159643	 9.159643;
	27	 29	 0.2198	 0.4153	 0.0	 28.0	 28.0	 28.0	 0.0	 0.0	 1	 -9.159643	 9.159643;
	27	 30	 0.3202	 0.6027	 0.0	 28.0	 28.0	 28.0	 0.0	 0.0	 1	 -9.159643	 9.159643;
	29	 30	 0.2399	 0.4533	 0.0	 28.0	 28.0	 28.0	 0.0	 0.0	 1	 -9.159643	 9.159643;
	8	 28	 0.0636	 0.2	 0.0428	 140.0	 140.0	 140.0	 0.0	 0.0	 1	 -9.159643	 9.159643;
	6	 28	 0.0169	 0.0599	 0.013	 149.0	 149.0	 149.0	 0.0	 0.0	 1	 -9.159643	 9.159643;
];

% INFO    : === Translation Options ===
% INFO    : Phase Angle Bound:           9.159643 (deg.)
% INFO    : AC OPF Solution File:        ./nesta_case30_ieee__sad.m.opf.sol
% INFO    : 
% INFO    : === Voltage Setpoint Replacement Notes ===
% INFO    : Bus 1	: V=1.06, theta=0.0 -> V=1.06, theta=-0.0
% INFO    : Bus 2	: V=1.03592, theta=-4.11149 -> V=1.03592, theta=-4.11149
% INFO    : Bus 3	: V=1.01502, theta=-6.85372 -> V=1.01502, theta=-6.85372
% INFO    : Bus 4	: V=1.00446, theta=-8.44573 -> V=1.00446, theta=-8.44573
% INFO    : Bus 5	: V=0.99748, theta=-13.13219 -> V=0.99748, theta=-13.13219
% INFO    : Bus 6	: V=1.00169, theta=-10.1567 -> V=1.00169, theta=-10.1567
% INFO    : Bus 7	: V=0.99208, theta=-11.91709 -> V=0.99208, theta=-11.91709
% INFO    : Bus 8	: V=1.00241, theta=-10.93464 -> V=1.00241, theta=-10.93464
% INFO    : Bus 9	: V=1.03671, theta=-13.26617 -> V=1.03671, theta=-13.26617
% INFO    : Bus 10	: V=1.0322, theta=-14.89731 -> V=1.0322, theta=-14.89731
% INFO    : Bus 11	: V=1.06, theta=-13.26617 -> V=1.06, theta=-13.26617
% INFO    : Bus 12	: V=1.04625, theta=-14.18876 -> V=1.04625, theta=-14.18876
% INFO    : Bus 13	: V=1.06, theta=-14.18876 -> V=1.06, theta=-14.18876
% INFO    : Bus 14	: V=1.03103, theta=-15.09457 -> V=1.03103, theta=-15.09457
% INFO    : Bus 15	: V=1.02621, theta=-15.17833 -> V=1.02621, theta=-15.17833
% INFO    : Bus 16	: V=1.03259, theta=-14.7532 -> V=1.03259, theta=-14.7532
% INFO    : Bus 17	: V=1.02725, theta=-15.07477 -> V=1.02725, theta=-15.07477
% INFO    : Bus 18	: V=1.01602, theta=-15.79034 -> V=1.01602, theta=-15.79034
% INFO    : Bus 19	: V=1.01317, theta=-15.95831 -> V=1.01317, theta=-15.95831
% INFO    : Bus 20	: V=1.01714, theta=-15.75155 -> V=1.01714, theta=-15.75155
% INFO    : Bus 21	: V=1.01982, theta=-15.35269 -> V=1.01982, theta=-15.35269
% INFO    : Bus 22	: V=1.02041, theta=-15.33862 -> V=1.02041, theta=-15.33862
% INFO    : Bus 23	: V=1.01532, theta=-15.56402 -> V=1.01532, theta=-15.56402
% INFO    : Bus 24	: V=1.0093, theta=-15.72599 -> V=1.0093, theta=-15.72599
% INFO    : Bus 25	: V=1.00621, theta=-15.2914 -> V=1.00621, theta=-15.2914
% INFO    : Bus 26	: V=0.98833, theta=-15.72056 -> V=0.98833, theta=-15.72056
% INFO    : Bus 27	: V=1.01294, theta=-14.75622 -> V=1.01294, theta=-14.75622
% INFO    : Bus 28	: V=0.99824, theta=-10.79564 -> V=0.99824, theta=-10.79564
% INFO    : Bus 29	: V=0.99288, theta=-16.01184 -> V=0.99288, theta=-16.01184
% INFO    : Bus 30	: V=0.98128, theta=-16.91371 -> V=0.98128, theta=-16.91371
% INFO    : 
% INFO    : === Generator Setpoint Replacement Notes ===
% INFO    : Gen at bus 1	: Pg=218.839, Qg=9.373 -> Pg=218.839, Qg=9.373
% INFO    : Gen at bus 1	: Vg=1.06 -> Vg=1.06
% INFO    : Gen at bus 2	: Pg=80.05, Qg=24.589 -> Pg=80.05, Qg=24.589
% INFO    : Gen at bus 2	: Vg=1.03592 -> Vg=1.03592
% INFO    : Gen at bus 5	: Pg=0.0, Qg=32.487 -> Pg=0.0, Qg=32.487
% INFO    : Gen at bus 5	: Vg=0.99748 -> Vg=0.99748
% INFO    : Gen at bus 8	: Pg=0.0, Qg=40.0 -> Pg=0.0, Qg=40.0
% INFO    : Gen at bus 8	: Vg=1.00241 -> Vg=1.00241
% INFO    : Gen at bus 11	: Pg=0.0, Qg=11.87 -> Pg=0.0, Qg=11.87
% INFO    : Gen at bus 11	: Vg=1.06 -> Vg=1.06
% INFO    : Gen at bus 13	: Pg=0.0, Qg=10.414 -> Pg=0.0, Qg=10.414
% INFO    : Gen at bus 13	: Vg=1.06 -> Vg=1.06
% INFO    : 
% INFO    : === Writing Matpower Case File Notes ===
